28
Lattice="8.864997715735747 0.0 0.0 4.4324988578678735 7.677313226318175 0.0 0.0 0.0 16.825493549886893" Properties=species:S:1:pos:R:3:tags:I:1 pbc="T T F"
Au       1.47751204       0.85304197       5.98623621        3
Au       4.43249886       0.85305568       5.98624046        3
Au       7.38748568       0.85304197       5.98623621        3
Au       2.95501732       3.41212877       5.98624046        3
Au       5.90998040       3.41212877       5.98624046        3
Au       8.86499772       3.41213258       5.98623423        3
Au       4.43249886       5.97122928       5.98623621        3
Au       7.38749236       5.97124693       5.98623423        3
Au      10.34250308       5.97124693       5.98623423        3
Au      -0.00000000       1.70606151       8.41274966        2
Au       2.95501330       1.70607772       8.41274539        2
Au       5.90998442       1.70607772       8.41274539        2
Au       1.47752049       4.26516196       8.41274546        2
Au       4.43249886       4.26515778       8.41274539        2
Au       7.38747722       4.26516196       8.41274546        2
Au       2.95500625       6.82428247       8.41274966        2
Au       5.90999146       6.82428247       8.41274966        2
Au       8.86499772       6.82430253       8.41274546        2
Au       0.00000000       0.00000000      10.83925994        1
Au       2.95499281       0.00001568      10.83925665        1
Au       5.91000491       0.00001568      10.83925665        1
Au       1.47750998       2.55909100      10.83925665        1
Au       4.43249886       2.55910441      10.83924986        1
Au       7.38748773       2.55909100      10.83925665        1
Au       2.95501603       5.11820655      10.83925665        1
Au       5.90998169       5.11820655      10.83925665        1
Au       8.86499772       5.11820882      10.83926108        1
O        4.43249886       2.55910441      12.83924986        0
